! DLR Concise: High Temperature Reaction Mechanism for fuel surrogate 
! Version 1, 2021, Jet fuels (DLRConcise2021v1.JF)
! Citation: 
! Combustion Kinetics of Alternative Jet Fuels, Part-II: Reaction Model for Fuel Surrogate, Fuel 2021 doi 10.1016/j.fuel.2021.120736 
! Authors: T. Kathrotia*, P. Oßwald, C. Naumann, S. Richter, M. Köhler
! Contact: trupti.kathrotia(at)dlr.de
! Note: change in Part-III of this paper series, for simulations of fuels in flow reactor k adapted for CH2O+H=HCO+H2 [k4], to improve H2 over-prediction
! Note: Additional mechanism of Iso-OME2 = CH(OCH3)3, not part of original paper draft, is added.
! Note: !typo iOME2 <=> OME1*-1 + CH3O replace by iOME2 <=> OME1*-2 + CH3O
! Mechanism - no. of Species(no. of Reactions)
! Hydrocarbons without Butanol+OMEs - 238(1814)
! Hydrocarbons with Butanol+OME0-5 - 307(2123)
! Hydrocarbons with Butanol+OME0-5+iso-OME2 - 313(2148)
! For any error kindly report back to trupti.kathrotia(at)dlr.de

ELEMENTS
AR C H HE N O
END 
SPECIES
!===================================
! C0-C4-base mech
!===================================
!H2-O2
 N2             AR             HE             
 O              H              OH              O2            H2           
 H2O            HO2            H2O2            OH*           CH*

!C1
 C              CO             CO2            CH             HCO
 CH2            CH2(S)         CH3            CH4              
 CH2O           CH3O           CH2OH          CH3OH          
!C1:Low T
 CH3O2          CH3O2H


!C2
 C2             C2H            C2H2           H2CC           C2H3           
 C2H4           C2H5           C2H6                
 HCCO           CH2CO          CH2HCO         CH3CO          CH3CHO        
 C2H5O          

!Ethanol 
 CH2CH2OH       CH3CH2O        CH3CHOH        C2H5OH       

!C3
 C3H2           C3H3         C3H4           C3H5           C3H6 
 nC3H7          iC3H7        C3H8     

!C4 
 C4H2           iC4H3        C4H4           C4H5           iC4H5 
 C4H6           nC4H7        iC4H7          C4H8           iC4H8  
 pC4H9          sC4H9        tC4H9          iC4H9               
 N-C4H10                                                                       

!===================================
! Alcohols
!===================================
!C4-OH
nC4H9OH
nC4H9O-2   !CH3CHCH2CH2OH, CH3CH2CHCH2OH (lumped)
nC4H9O-4   !CH3CH2CH2CHOH
C3H6OH     !CH2CH2CH2OH 
CH2CHOH    !Ethenol
nC3H7CHO   !C4H8O  n-butanal
nC3H7CO    !C4H7O
C3H6CHO    !C4H7O
C2H5CHCO   !C4H6O

nC4H7OH    !C4H8O  n-butenol

!===================================
! OMEs
!===================================
!DME = OME0
DME        ! CH3OCH3 (C2H6O)
CH2OCH3    ! (C2H5O) 

!OME1
OME1       ! CH3O-CH2O-CH3 (C3H8O2) DMM - dimethoxymethane
OME1*-1    ! CH2O-CH2O-CH3 (C3H7O2 primary radical)
OME1*-2    ! CH3O-CHO-CH3 (C3H7O2 secondary radical)
OCHOCH3    ! (C2H4O2)
OCHOCH2    ! (C2H3O2)
OCOCH3     ! (C2H3O2)
OCHO       ! (CHO2)
COCO*      ! CH3OCH2O* (C2H5O2)

!OME2     
OME2       ! CH3O-CH2O-CH2O-CH3 (C4H10O3)
OME2*-1    ! CH2O-CH2O-CH2O-CH3 (primary radical C4H9O3)
OME2*-2    ! CH3O-CHO-CH2O-CH3 (secondary radical C4H9O3)
COCOCHO    ! CH3OCH2OCHO (C3H6O3)

!iso-OME2     
iOME2       ! iso-OME2 = CH(OCH3)3 (C4H10O3) Trimethyl orthoformate
iOME2*-1    ! CH(OCH3)2OCH2* (primary radical C4H9O3)
iOME2*-2    ! C*(OCH3)3 (secondary/tertiary lumped radical C4H9O3)
OC(OCH3)2   ! (C3H6O3)
O*C(OCH3)O  ! (C2H3O3)
O*CH(OCH3)2 ! (C3H7O3)

!OME3
OME3       ! CH3O-CH2O-CH2O-CH2O-CH3 (C5H12O4)
OME3*-1    ! CH2O-CH2O-CH2O-CH2O-CH3 primary radical (C5H11O4)
OME3*-2    ! CH3O-CHO-CH2O-CH2O-CH3 secondary radical (C5H11O4)
OME3*-3    ! CH3O-CH2O-CHO-CH2O-CH3 secondary radical (C5H11O4)
COCOCOCHO  ! CH3OCH2OCH2OCHO (C4H8O4)
COCOCOC*O  ! CH3OCH2OCH2OC*O (C4H7O4)
COCOC*OCHO ! CH3OCH2OCH*OCHO (C4H7O4)
COC*OCOCHO ! CH3OCH*OCH2OCHO (C4H7O4)
C*OCOCOCHO ! CH2*OCH2OCH2OCHO (C4H7O4)
OCOCHO     ! OCHOCHO (C2H2O3)
C*OCOCHO   ! CH2*OCH2OCHO (C3H5O3)
COC*OCHO   ! CH3OCH*OCHO (C3H5O3)
OCOCOCHO   ! OCHOCH2OCHO (C3H4O4)

COCOCO*    ! CH3OCH2OCH2O* (C3H7O3) 
COCOCOCO*  ! CH3OCH2OCH2OCH2O* (C4H9O4) 

CH3OCH2O2H ! C2H6O3 Low T 
CH3OCH2O2  ! C2H5O3 Low T 

!OME4
OME4          ! CH3O-CH2O-CH2O-CH2O-CH2O-CH3 (C6H14O5)
OME4*-1       ! CH2O-CH2O-CH2O-CH2O-CH2O-CH3 (primary radical C6H13O5)
OME4*-2       ! CH3O-CHO-CH2O-CH2O-CH2O-CH3 (secondary radical C6H13O5)
OME4*-3       ! CH3O-CH2O-CHO-CH2O-CH2O-CH3 (secondary radical C6H13O5)
COCOCOCOCHO   ! CH3OCH2OCH2OCH2OCHO (C5H10O5)
COCOCOCOC*O   ! CH3OCH2OCH2OCH2OC*O (C5H9O5)
COCOCOC*OCHO  ! CH3OCH2OCH2OCH*OCHO (C5H9O5)
COCOC*OCOCHO  ! CH3OCH2OCH*OCH2OCHO (C5H9O5)
COC*OCOCOCHO  ! CH3OCH*OCH2OCH2OCHO (C5H9O5)
C*OCOCOCOCHO  ! CH2*OCH2OCH2OCH2OCHO (C5H9O5)

OCOCOCOCHO    ! OCHOCH2OCH2OCHO (C4H6O5)
O*COCHO       ! O*CH2OCHO (C2H3O3)
O*COCOCHO     ! O*CH2OCH2OCHO (C3H5O4)

COCOCOCOCO*   ! CH3OCH2OCH2OCH2OCH2O* (C5H11O5)

!OME5
OME5            ! CH3O-CH2O-CH2O-CH2O-CH2O-CH2O-CH3 (C7H16O6)
OME5*-1         ! CH2O-CH2O-CH2O-CH2O-CH2O-CH2O-CH3 (primary radical C7H15O6)
OME5*-2         ! CH3O-CHO-CH2O-CH2O-CH2O-CH2O-CH3 (secondary radical C7H15O6)
OME5*-3         ! CH3O-CH2O-CHO-CH2O-CH2O-CH2O-CH3 (secondary radical C7H15O6)
OME5*-4         ! CH3O-CH2O-CH2O-CHO-CH2O-CH2O-CH2O-CH3 (secondary radical C7H15O6)

COCOCOCOCOCHO   ! CH3OCH2OCH2OCH2OCH2OCHO (C6H12O6)
COCOCOCOCOC*O   ! CH3OCH2OCH2OCH2OCH2OC*O (C6H11O6)
COCOCOCOC*OCHO  ! CH3OCH2OCH2OCH2OCH*OCHO (C6H11O6)
COCOCOC*OCOCHO  ! CH3OCH2OCH2OCH*OCH2OCHO (C6H11O6)
COCOC*OCOCOCHO  ! CH3OCH2OCH*OCH2OCH2OCHO (C6H11O6)
COC*OCOCOCOCHO  ! CH3OCH*OCH2OCH2OCH2OCHO (C6H11O6)
C*OCOCOCOCOCHO  ! CH2*OCH2OCH2OCH2OCH2OCHO (C6H11O6)

COCOCOCOCOCO*   ! CH3OCH2OCH2OCH2OCH2OCH2O* (C6H13O6)

OCOCOCOCOCHO    ! OCHOCH2OCH2OCH2OCHO (C5H8O6)

!===================================
! n-alkanes
!===================================

!C5
 C5H8         C5H9           iC5H9          C5H10         iC5H10 
 C5H11        iC5H11  

!C6
 C6H10        C6H11          iC6H11         C6H12         iC6H12 
 C6H13        iC6H13         N-C6H14                                         

!C7 
 C7H13        iC7H13         C7H14          iC7H14        
 C7H15        iC7H15         N-C7H16                         
	
!C8
 nC8H15       iC8H15         C8H16          iC8H16                          
 nC8H17       p-iC8H17       s-iC8H17       I-C8H18                      

! C9
 nC9H17       nC9H18         pC9H19         sC9H19       N-C9H20  

!C10
 nC10H20      pC10H21        sC10H21        N-C10H22               

!C12
 nC12H23      nC12H24        pC12H25        sC12H25      N-C12H26     

!C16
 N-C16H34     C16H33      C16H32 

!===================================
! cyclo-alkanes
!===================================

!C5 cyclo
 cyC5H8    
 cyC5H7

!C6 cyclohexane (cyC6H12)
 C5H5      
 C5H6            !cyclopentadiene
 cyC6H7      
 cyC6H8       
 cyC6H9      
 cyC6H10     
 cyC6H11     
 cyC6H12
 cyC6H10OH  
 cyC6H9O       
 cyC6H11O 
 C3H4O           !(Acrolein)

!CyC6H12 low T
 cyC6H11OO     cyC6H10OOH       cyC6H11OOH
 cyOC6H9OOH    
 cyOOC6H10OOH 

!Propylcyclohexane (cyC9H18)
 cyC9H18      
 cyC9H17B   
 cyC9H17E 
 cyC7H12     
 cyC7H13     
 cyC8H14     
 cyC8H15    

!===================================
! Aromatics
!===================================

!A1 - 1-ring Aromatics
!Benzene
     A1           ! C6H6, Benzene
     A1-          ! C6H5, Phenyl Radical
     C6H5O        ! C6H5O Phenoxy Radical    
     C6H5OH       ! C6H6O Phenol
     C5H4O        ! C5H4O cyclopentadione
     C5H5O        ! C5H5O cyclopentadienoxy radical

!Propylbenzene
     pbz          ! C9H12 propylbenzene (A1C3H7)
     ebz          ! C8H10 ethylbenzene (A1C2H5) (for tetralin, decalin)
     A1C2H4       ! C8H9 2-phenyl, ethyl
     A1C3H6       ! C9H11
     A1C3H5       ! C9H10 Allylbenzene
     A1C3H4       ! C9H9 radical (A1C3H4) phenyl-allyl radical

!Toluene
     C7H8         ! C7H8 Toluene (C6H5CH3)
     C7H7         ! C7H7 Benzyl radical (C6H5CH2)
     A1C2H        ! C8H6 Phenyl-acetylene (C6H5CCH)
     A1C2H-       ! C8H5 2-ethynylphenyl radical (C6H4CCH)

!Styrene
     A1C2H3       ! C8H8 Styrene (C6H5CH=CH2)
     A1C2H3*      ! C8H7 Styrene Radical1 (C6H4CH=CH2)
     A1C2H2       ! C8H7 Styrene Radical2 (C6H5CH=CH.), phenylvinyl radical, old mech as n-C8H7

!A2 - 2-ring Aromatics, cycloAromatics
!Indane, Indene
     INDANE       ! C9H10 Indane
     INDANYL-1    ! C9H9 Indanyl radical1
     INDANYL-2    ! C9H9 Indanyl radical2
     C6H4C2H3CH3  ! C9H10 Methyl styrene (C6H4C2H3CH3)
     C6H4C2H3CH2  ! C9H9  Methyl styrene Radical (C6H4C2H3CH2)
     C6H4C3H5     ! C9H9  (C6H4C3H5)
!    A1C3H4       ! C9H9  (C6H5C3H4) already in pbz mech

     INDENE       ! C9H8 Indene
     INDENYL      ! C9H7 Indenyl radical  

!Decalin
     DECALIN      ! C10H18 Decalin
     RDECALIN     ! C10H17 Decalyl Radical

!Tetralin
     TETRALIN     ! C10H12 
     RTETRALIN    ! C10H11  
 
!Biphenyl, Naphthalene
     P2           ! C12H10 Biphenyl         
     P2-          ! C12H9 Biphenyl radical  
     A2           ! C10H8 Naphthalene
     A2-          ! C10H7 Naphtyl radical  
     A2C2H        ! C12H8 (C10H7-CCH) Ethynyl-naphthalene
     A2C2H*       ! C12H7 Ethynylnaphthalyl radical

!Methylnaphthalene, Acenapthylene
     A2CH3        ! C11H10 Methyl-naphthalene
     A2CH2        ! C11H9 Methyl-naphthalene Radical or Naphthyl-methylene Radical
     A2R5         ! C12H8  Acenapthylene
     A2R5-        ! C12H7  Acenapthylene Radical
     A2O          ! C10H7O, Naphthoxy
     A2OH         ! C10H8O, Naphthol
     A2CO         ! C11H7O, 1-naphthylmethanone or 1-Naphthylcarbonyl radical
     A2CHO        ! C11H8O, Naphthaldehyde
     A2CH2OH      ! C11H10O

!A3 - 3-ring Aromatics, cycloAromatics
     A3-          ! C14H9 Phenantrene Radical 
     A3           ! C14H10 Phenantrene
     A3CH3        ! C15H12 Methyl-Phenanthrene
     A3CH2        ! C15H11 Methyl-Phenanthrene Radical
     A3C2H        ! C16H10 Ethynyl-Phenanthrene (NS:Phenanthryl-acetylene)
     A3C2H*       ! C16H9 Phenanthryl-acetylene Radical    

!A4 - 4-ring Aromatics, cycloAromatics
     A4           ! C16H10 Pyrene   
     A4-          ! C16H9 Pyrene Radical
     A4C2H        ! C18H10 Ethynyl-pyrene (NS:Pyrenyl-acetylene)    
     A4C2H*       ! C18H9 Pyrenyl-acetylene Radical

     BGHIF        ! C18H10 Benzo-(ghi)-Fluoranthene
     C18H12	  ! C18H12 Benz(a)Phenanthrene = Chrysene
     C18H11       ! C18H11 Benz(a)Phenanthrene Radical

!A5 - 5-ring Aromatics, cycloAromatics
     BAPYR        ! C20H12 Benzo(a)Pyrene 
     BAPYR*S      ! C20H11 Benzo(a)Pyrenyl Radical      

!Poly-acetylenes C2nH2
     C4H          !
!    C4H2         !1,3-Butadiyne / biacetylene / diacetylene (part of base mech)
     C6H          ! 
     C6H2         !Tri-acetylene or Hex-1-en-3,5-diyne
     C8H          !
     C8H2         !Octatetrayne
     C10H2        !Decapentayne

!===================================
! iso-alkanes
!===================================
!iC10:
     iC10H22      !2-7 dimethyloctane
     p-iC10H21    
     s-iC10H21     
     t-iC10H21     

     s-iC10H20     
     t-iC10H20     

     s-iC10H19   
     t-iC10H19  
	
     iC9H19
     iC9H18
     iC9H17

!iC11:
     iC11H24      ! 2-methyldecane

     p-iC11H23 
     s-iC11H23
     t-iC11H23 

     p-iC11H22  
     s-iC11H22  
     t-iC11H22  

     s-iC11H21 
     t-iC11H21  

!iC15:
     iC15H32     ! Farnesane
     a-iC15H31  
     b-iC15H31  
     c-iC15H31  
     d-iC15H31

     iC15H30
     iC14H28

     b-iC13H27
     d-iC12H25 

END 
THERMO ALL
    200.00  1000.00  6000.00 
N2                      N   2               G    200.00   6000.00 1000.00      1 ! REF ELEMENT  RUS 78
 2.95254070E+00 1.39688380E-03-4.92625770E-07 7.86000910E-11-4.60749780E-15    2
-9.23937530E+02 5.87182210E+00 3.53096280E+00-1.23659500E-04-5.02993390E-07    3
 2.43527680E-09-1.40879540E-12-1.04696370E+03 2.96743910E+00                   4
AR                      AR  1               G    200.00   6000.00 1000.00      1 ! REF ELEMENT  L 6/88
 2.50000000E+00 0.00000000E+00 0.00000000E+00 0.00000000E+00 0.00000000E+00    2
-7.45375000E+02 4.37967490E+00 2.50000000E+00 0.00000000E+00 0.00000000E+00    3
 0.00000000E+00 0.00000000E+00-7.45375000E+02 4.37967490E+00                   4
HE                      HE  1               G    300.00   5000.00 1000.00      1 !   120186
 2.50000000E+00 0.00000000E+00 0.00000000E+00 0.00000000E+00 0.00000000E+00    2
-7.45375000E+02 9.15348900E-01 2.50000000E+00 0.00000000E+00 0.00000000E+00    3
 0.00000000E+00 0.00000000E+00-7.45375000E+02 9.15348800E-01                   4
O                       O   1               G    200.00   3500.00 1000.00      1 !  L 1/90
 2.56942078E+00-8.59741137E-05 4.19484589E-08-1.00177799E-11 1.22833691E-15    2
 2.92175791E+04 4.78433864E+00 3.16826710E+00-3.27931884E-03 6.64306396E-06    3
-6.12806624E-09 2.11265971E-12 2.91222592E+04 2.05193346E+00                   4
H                       H   1               G    200.00   6000.00 1000.00      1 !   L 6/94
 2.50000000E+00 0.00000000E+00 0.00000000E+00 0.00000000E+00 0.00000000E+00    2
 2.54736600E+04-4.46682850E-01 2.50000000E+00 0.00000000E+00 0.00000000E+00    3
 0.00000000E+00 0.00000000E+00 2.54736600E+04-4.46682850E-01                   4
! HYDROXYL RADI  IU3/03
OH                      H   1O   1          G    200.00   6000.00 1000.00      1
 2.83853033E+00 1.10741289E-03-2.94000209E-07 4.20698729E-11-2.42289890E-15    2
 3.69780808E+03 5.84494652E+00 3.99198424E+00-2.40106655E-03 4.61664033E-06    3
-3.87916306E-09 1.36319502E-12 3.36889836E+03-1.03998477E-01                   4
! also same in Metcalfe2013 REF ELEMENT  RUS 89
O2                      O   2               G    200.00   6000.00 1000.00      1
 3.66096083E+00 6.56365523E-04-1.41149485E-07 2.05797658E-11-1.29913248E-15    2
-1.21597725E+03 3.41536184E+00 3.78245636E+00-2.99673415E-03 9.84730200E-06    3
-9.68129508E-09 3.24372836E-12-1.06394356E+03 3.65767573E+00                   4
H2                      H   2               G    300.00   5000.00 1000.00      1 ! from POLIMI_TOT1212
 2.99142220E+00 7.00064410E-04-5.63382800E-08-9.23157820E-12 1.58275200E-15    2
-8.35033546E+02-1.35510641E+00 3.29812400E+00 8.24944120E-04-8.14301470E-07    3
-9.47543430E-11 4.13487200E-13-1.01252100E+03-3.29409400E+00                   4
H2O                     H   2O   1          G    200.00   6000.00 1000.00      1 !  L 5/89
 2.67703890E+00 2.97318160E-03-7.73768890E-07 9.44335140E-11-4.26899910E-15    2
-2.98858940E+04 6.88255000E+00 4.19863520E+00-2.03640170E-03 6.52034160E-06    3
-5.48792690E-09 1.77196800E-12-3.02937260E+04-8.49009010E-01                   4
HO2                     H   1O   2          G    200.00   5000.00 1000.00      1 !  T 1/09
 4.17228741E+00 1.88117627E-03-3.46277286E-07 1.94657549E-11 1.76256905E-16    2
 3.10206839E+01 2.95767672E+00 4.30179807E+00-4.74912097E-03 2.11582905E-05    3
-2.42763914E-08 9.29225225E-12 2.64018485E+02 3.71666220E+00                   4
H2O2                    H   2O   2          G    200.00   6000.00 1000.00      1 !  T 8/03
 4.57977305E+00 4.05326003E-03-1.29844730E-06 1.98211400E-10-1.13968792E-14    2
-1.80071775E+04 6.64970694E-01 4.31515149E+00-8.47390622E-04 1.76404323E-05    3
-2.26762944E-08 9.08950158E-12-1.77067437E+04 3.27373319E+00                   4
OH*                     H   1O   1          G    300.00   5000.00 1000.00      1 !   121286
 2.88273000E+00 1.01397430E-03-2.27687700E-07 2.17468300E-11-5.12630500E-16    2
 5.02650000E+04 5.59571200E+00 3.63726600E+00 1.85091000E-04-1.67616460E-06    3
 2.38720200E-09-8.43144200E-13 5.00213000E+04 1.35886050E+00                   4
CH*                     C   1H   1          G    200.00   3500.00 1000.00      1 !   TPIS79
 2.78220752E+00 1.47246754E-03-4.63436227E-07 7.32736021E-11-4.19705404E-15    2
 1.04547060E+05 5.17421018E+00 3.47250101E+00 4.26443626E-04-1.95181794E-06    3
 3.51755043E-09-1.60436174E-12 1.04334869E+05 1.44799533E+00                   4
C                       C   1               G    300.00   5000.00 1000.00      1
 2.49266888E+00 4.79889284E-05-7.24335020E-08 3.74291029E-11-4.87277893E-15    2
 8.54512953E+04 4.80150373E+00 2.55423955E+00-3.21537724E-04 7.33792245E-07    3
-7.32234889E-10 2.66521446E-13 8.54438832E+04 4.53130848E+00                   4
CO                      C   1O   1          G    200.00   6000.00 1000.00      1 !   RUS 79
 3.04848590E+00 1.35172810E-03-4.85794050E-07 7.88536440E-11-4.69807460E-15    2
-1.42661170E+04 6.01709770E+00 3.57953350E+00-6.10353690E-04 1.01681430E-06    3
 9.07005860E-10-9.04424490E-13-1.43440860E+04 3.50840930E+00                   4
CO2                     C   1O   2          G    200.00   6000.00 1000.00      1 !   L 7/88
 4.63651110E+00 2.74145690E-03-9.95897590E-07 1.60386660E-10-9.16198570E-15    2
-4.90249040E+04-1.93489550E+00 2.35681300E+00 8.98412990E-03-7.12206320E-06    3
 2.45730080E-09-1.42885480E-13-4.83719710E+04 9.90090350E+00                   4
CH                      C   1H   1          G    200.00   6000.00 1000.00      1 !   RUS 79
 2.52090620E+00 1.76537260E-03-4.61475810E-07 5.92885670E-11-3.34732090E-15    2
 7.11340820E+04 7.40532230E+00 3.48981660E+00 3.23835540E-04-1.68899060E-06    3
 3.16217330E-09-1.40609070E-12 7.07999390E+04 2.08401110E+00                   4
HCO                     C   1H   1O   1     G    200.00   6000.00 1000.00      1 !  T 5/03
 3.92001542E+00 2.52279324E-03-6.71004164E-07 1.05615948E-10-7.43798261E-15    2
 3.65342928E+03 3.58077056E+00 4.23754610E+00-3.32075257E-03 1.40030264E-05    3
-1.34239995E-08 4.37416208E-12 3.87241185E+03 3.30834869E+00                   4
CH2                     C   1H   2          G    200.00   6000.00 1000.00      1 ! TRIPLET  RUS 79
 2.53871220E+00 3.82254910E-03-1.28613040E-06 1.98003080E-10-1.14657430E-14    2
 4.61292530E+04 8.10546480E+00 4.17936550E+00-2.21785530E-03 7.96536020E-06    3
-6.91273390E-09 2.24753180E-12 4.57508570E+04-7.61137030E-03                   4
CH2(S)                  C   1H   2          G    200.00   3500.00 1000.00      1 !   L S/93
 2.29203842E+00 4.65588637E-03-2.01191947E-06 4.17906000E-10-3.39716365E-14    2
 5.09259997E+04 8.62650169E+00 4.19860411E+00-2.36661419E-03 8.23296220E-06    3
-6.68815981E-09 1.94314737E-12 5.04968163E+04-7.69118967E-01                   4
CH3                     C   1H   3          G    200.00   6000.00 1000.00      1 !  IU0702
 2.97812060E+00 5.79785200E-03-1.97558000E-06 3.07297900E-10-1.79174160E-14    2
 1.65095130E+04 4.72247990E+00 3.65717970E+00 2.12659790E-03 5.45838830E-06    3
-6.61810030E-09 2.46570740E-12 1.64227160E+04 1.67353540E+00                   4
! also same in Metcalfe2013 ANHARMONIC  L 8/88
CH4                     C   1H   4          G    200.00   6000.00 1000.00      1
 1.63542560E+00 1.00844310E-02-3.36923690E-06 5.34972800E-10-3.15528170E-14    2
-1.00056030E+04 9.99369530E+00 5.14987920E+00-1.36710080E-02 4.91801300E-05    3
-4.84744030E-08 1.66694410E-11-1.02466480E+04-4.64132440E+00                   4
CH2O                    C   1H   2O   1     G    200.00   6000.00 1000.00      1 !   L 8/88
 3.16948070E+00 6.19327420E-03-2.25059810E-06 3.65982450E-10-2.20154100E-14    2
-1.44784250E+04 6.04235330E+00 4.79370360E+00-9.90815180E-03 3.73214590E-05    3
-3.79279020E-08 1.31770150E-11-1.43089550E+04 6.02887020E-01                   4
CH3O                    C   1H   3O   1     G    200.00   6000.00 1000.00      1 !   L 8/88
 4.26533080E+00 7.85764060E-03-2.84104380E-06 4.60451900E-10-2.76319060E-14    2
 5.93510660E+01 3.93099470E-01 3.26523370E+00 3.30316650E-03 1.70488010E-05    3
-2.27096300E-08 8.80717680E-12 7.32295800E+02 7.42573570E+00                   4
CH2OH                   C   1H   3O   1     G    200.00   6000.00 1000.00      1 !   T 9/92
 4.67767330E+00 6.56087720E-03-2.26368640E-06 3.55304690E-10-2.08429590E-14    2
-2.89280480E+03 4.80418790E-01 3.86440270E+00 5.59131610E-03 5.95146350E-06    3
-1.04771760E-08 4.37931990E-12-2.50504930E+03 5.47106520E+00                   4
CH3OH                   C   1H   4O   1     G    200.00   6000.00 1000.00      1 !   L 8/88
 3.60125930E+00 1.02432230E-02-3.59992170E-06 5.72519510E-10-3.39127190E-14    2
-2.59971550E+04 4.70560250E+00 5.71539480E+00-1.52309200E-02 6.52441820E-05    3
-7.10808730E-08 2.61353830E-11-2.56427650E+04-1.50409700E+00                   4
CH3O2                   C   1H   3O   2     G    300.00   5000.00 1000.00      1 ! Metcalfe2013
 4.80390863E+00 9.95844638E-03-3.85301026E-06 6.84740497E-10-4.58402955E-14    2
-7.47135460E+02 1.45281400E+00 3.62497097E+00 3.59397933E-03 2.26538097E-05    3
-2.95391947E-08 1.11977570E-11 7.93040410E+01 9.96382194E+00                   4
CH3O2H                  C   1H   4O   2     G    200.00   6000.00 1000.00      1 ! Metcalfe2013  A 7/05
 7.76538058E+00 8.61499712E-03-2.98006935E-06 4.68638071E-10-2.75339255E-14    2
-1.82979984E+04-1.43992663E+01 2.90540897E+00 1.74994735E-02 5.28243630E-06    3
-2.52827275E-08 1.34368212E-11-1.68894632E+04 1.13741987E+01                   4
! from Marinov/Pitz n-C4 mechanism  121286
C2                      C   2               G    300.00   5000.00 1000.00      1
 4.13597900E+00 6.53161800E-05 1.83709900E-07-5.29508500E-11 4.71213700E-15    2
 9.96727200E+04 7.47292300E-01 6.99604500E+00-7.40060200E-03 3.23470400E-06    3
 4.80253500E-09-3.29591800E-12 9.89748700E+04-1.38622700E+01                   4
C2H                     C   2H   1          G    200.00   6000.00 1000.00      1 !   T04/93
 3.66460600E+00 3.82186940E-03-1.36507430E-06 2.13248280E-10-1.23094300E-14    2
 6.45970550E+04 3.91349730E+00 2.90180200E+00 1.32859820E-02-2.80508860E-05    3
 2.89301840E-08-1.07447420E-11 6.44903260E+04 6.17235060E+00                   4
C2H2                    C   2H   2          G    200.00   6000.00 1000.00      1 !   L 8/88
 4.65870470E+00 4.88409490E-03-1.60835630E-06 2.46987870E-10-1.38615050E-14    2
 2.56632180E+04-3.99790740E+00 8.08691080E-01 2.33613950E-02-3.55166360E-05    3
 2.80145660E-08-8.50044590E-12 2.63327640E+04 1.39396710E+01                   4
H2CC                    C   2H   2          G    200.00   6000.00 1000.00      1 !   L12/89
 4.27803400E+00 4.75628040E-03-1.63010090E-06 2.54628060E-10-1.48863790E-14    2
 4.83166880E+04 6.40237010E-01 3.28154830E+00 6.97647910E-03-2.38552440E-06    3
-1.21044320E-09 9.81895450E-13 4.86217940E+04 5.92039100E+00                   4
C2H3                    C   2H   3          G    200.00   6000.00 1000.00      1 !   T06/93
 4.70253100E+00 7.26422830E-03-2.58019920E-06 4.13199440E-10-2.45914920E-14    2
 3.40296750E+04-1.42937140E+00 3.00196020E+00 3.03043540E-03 2.44443150E-05    3
-3.58102420E-08 1.51087000E-11 3.48681730E+04 9.33044950E+00                   4
C2H4                    C   2H   4          G    300.00   5000.00 1000.00      1 ! ETHYLENE  L 4/85
 4.39854530E+00 9.62286070E-03-3.16637760E-06 4.57476280E-10-2.36594060E-14    2
 4.11532030E+03-2.46274380E+00 1.21766000E+00 1.30026750E-02 3.50374470E-06    3
-1.11555140E-08 4.72032220E-12 5.33738280E+03 1.54801690E+01                   4
C2H5                    C   2H   5          G    200.00   6000.00 1000.00      1 !   T12/91
 4.28788140E+00 1.24338930E-02-4.41391190E-06 7.06541020E-10-4.20351360E-14    2
 1.20564550E+04 8.46025830E-01 4.30585800E+00-4.18336380E-03 4.97072700E-05    3
-5.99058740E-08 2.30484780E-11 1.28417140E+04 4.71002360E+00                   4
C2H6                    C   2H   6          G    300.00   5000.00 1000.00      1 ! ETHANE  L 5/84
 4.70288470E+00 1.40426350E-02-4.64693770E-06 6.74737380E-10-3.50893120E-14    2
-1.26719880E+04-4.54339500E+00 1.53952600E+00 1.50408410E-02 6.68471150E-06    3
-1.33829480E-08 4.85613980E-12-1.12487660E+04 1.41073750E+01                   4
HCCO                    C   2H   1O   1     G    200.00   6000.00 1000.00      1 !   T 6/94
 5.84690060E+00 3.64059600E-03-1.29590070E-06 2.07969190E-10-1.24000220E-14    2
 1.92484960E+04-5.29165330E+00 2.33501180E+00 1.70100830E-02-2.20188670E-05    3
 1.54064470E-08-4.34550970E-12 2.00502990E+04 1.19767290E+01                   4
CH2CO                   C   2H   2O   1     G    200.00   6000.00 1000.00      1 ! KETENE  T 6/94
 5.75779010E+00 6.34965070E-03-2.25844070E-06 3.62084620E-10-2.15690300E-14    2
-7.97861130E+03-6.10640370E+00 2.14011650E+00 1.80883680E-02-1.73242160E-05    3
 9.27674770E-09-1.99150110E-12-7.04305090E+03 1.21986990E+01                   4
CH2HCO                  C   2H   3O   1     G    300.00   5000.00 1000.00      1 ! Jetsurf  D05/83
 5.97566990E+00 8.13059140E-03-2.74362450E-06 4.07030410E-10-2.17601710E-14    2
-9.69500000E+02-5.03208790E+00 3.40906240E+00 1.07385740E-02 1.89149250E-06    3
-7.15858310E-09 2.86738510E-12 6.20000000E+01 9.57145350E+00                   4
CH3CO                   C   2H   3O   1     G    200.00   6000.00 1000.00      1 !   T 9/92
 5.94477310E+00 7.86672050E-03-2.88658820E-06 4.72708750E-10-2.85998610E-14    2
-3.78730750E+03-5.01367510E+00 4.16342570E+00-2.32616100E-04 3.42678200E-05    3
-4.41052270E-08 1.72756120E-11-2.65745290E+03 7.34682800E+00                   4
CH3CHO                  C   2H   4O   1     G    200.00   6000.00 1000.00      1 !   L 8/88
 5.40411080E+00 1.17230590E-02-4.22631370E-06 6.83724510E-10-4.09848630E-14    2
-2.25931220E+04-3.48079170E+00 4.72945950E+00-3.19328580E-03 4.75349210E-05    3
-5.74586110E-08 2.19311120E-11-2.15728780E+04 4.10301590E+00                   4
C2H5O                   C   2H   5O   1     G    300.00   5000.00 1000.00      1 !   T11/82
 6.01143460E+00 1.21652190E-02-4.04496040E-06 5.90765880E-10-3.09695950E-14    2
-4.93669920E+03-6.79017980E+00 1.73025040E+00 1.69084890E-02 3.99962210E-06    3
-1.37111800E-08 5.76436030E-12-3.29224830E+03 1.73361150E+01                   4
CH2CH2OH                C   2H   5O   1     G    300.00   5000.00 1391.00      1
 7.52244726E+00 1.10492715E-02-3.72576465E-06 5.72827397E-10-3.30061759E-14    2
-7.29337464E+03-1.24960750E+01 1.17714711E+00 2.48115685E-02-1.50299503E-05    3
 4.79006785E-09-6.40994211E-13-4.95369043E+03 2.20081586E+01                   4
CH3CH2O                 C   2H   5O   1     G    300.00   5000.00 1405.00      1 !    MAR96
 8.31182392E+00 1.03426319E-02-3.39186089E-06 5.12212617E-10-2.91601713E-14    2
-6.13097954E+03-2.13985581E+01-2.71296378E-01 2.98839812E-02-1.97090548E-05    3
 6.37339893E-09-7.77965054E-13-3.16397196E+03 2.47706003E+01                   4
CH3CHOH                 C   2H   5O   1     G    300.00   5000.00 1553.00      1
 7.26570301E+00 1.09588926E-02-3.63662803E-06 5.53659830E-10-3.17012322E-14    2
-8.64371441E+03-1.06822851E+01 1.83974631E+00 1.87789371E-02-4.60544253E-06    3
-2.13116990E-09 9.43772653E-13-6.29595195E+03 2.01446141E+01                   4
C2H5OH                  C   2H   6O   1     G    200.00   6000.00 1000.00      1 !   L 8/88
 6.56243650E+00 1.52042220E-02-5.38967950E-06 8.62250110E-10-5.12897870E-14    2
-3.15256210E+04-9.47302020E+00 4.85869570E+00-3.74017260E-03 6.95553780E-05    3
-8.86547960E-08 3.51688350E-11-2.99961320E+04 4.80185450E+00                   4
C3H2                    C   3H   2          G    200.00   6000.00 1000.00      1 ! Jetsurf2  T12/00
 7.34812070E+00 4.44764040E-03-1.26103320E-06 7.81318140E-11 1.32162980E-14    2
 6.25516560E+04-9.10402110E+00 4.50947760E+00 1.74386050E-02-2.45163210E-05    3
 1.89939670E-08-5.79965200E-12 6.30801910E+04 4.28924610E+00                   4
C3H3                    C   3H   3          G    200.00   6000.00 1000.00      1
 7.14221880E+00 7.61902005E-03-2.67459950E-06 4.24914801E-10-2.51475415E-14    2
 3.80693414E+04-1.25848435E+01 1.35110927E+00 3.27411223E-02-4.73827135E-05    3
 3.76309808E-08-1.18540923E-11 3.92663770E+04 1.52058924E+01                   4
C3H4                    C   3H   4          G    200.00   6000.00 1000.00      1 ! ALLENE  L 8/89
 6.31687220E+00 1.11337280E-02-3.96293780E-06 6.35642380E-10-3.78755400E-14    2
 2.01174950E+04-1.09957660E+01 2.61304450E+00 1.21225750E-02 1.85398800E-05    3
-3.45251490E-08 1.53350790E-11 2.15415670E+04 1.02261390E+01                   4
C3H5                    C   3H   5          G    200.00   6000.00 1000.00      1 ! SYMMETRIC  T 9/96
 7.00945680E+00 1.31066290E-02-4.65334420E-06 7.45143230E-10-4.43500510E-14    2
 1.64129090E+04-1.39461140E+01 1.46980360E+00 1.90343650E-02 1.44804250E-05    3
-3.54686520E-08 1.66475940E-11 1.83258310E+04 1.67241140E+01                   4
C3H6                    C   3H   6          G    300.00   5000.00 1000.00      1 ! PROPYLENE  L 4/85
 6.72139740E+00 1.49317570E-02-4.96523530E-06 7.25107530E-10-3.80014760E-14    2
-9.24531490E+02-1.21556170E+01 1.45751570E+00 2.11422630E-02 4.04680120E-06    3
-1.63190030E-08 7.04751530E-12 1.07402080E+03 1.73994600E+01                   4
nC3H7                   C   3H   7          G    300.00   5000.00 1000.00      1 ! N-L 9/84
 7.70269870E+00 1.60442030E-02-5.28332200E-06 7.62985900E-10-3.93922840E-14    2
 8.29843360E+03-1.54801800E+01 1.05155180E+00 2.59919800E-02 2.38005400E-06    3
-1.96095690E-08 9.37324700E-12 1.06318630E+04 2.11225590E+01                   4
iC3H7                   C   3H   7          G    300.00   5000.00 1000.00      1 ! I-L 9/84
 6.52946380E+00 1.71932880E-02-5.71532200E-06 8.34080800E-10-4.36635320E-14    2
 7.71791020E+03-9.13990210E+00 1.44615840E+00 2.09889750E-02 7.71726720E-06    3
-1.84813910E-08 7.12690240E-12 9.82060940E+03 2.01082000E+01                   4
C3H8                    C   3H   8          G    300.00   5000.00 1000.00      1 ! PROPANE  L 4/85
 7.53413680E+00 1.88722390E-02-6.27184910E-06 9.14756490E-10-4.78380690E-14    2
-1.64675160E+04-1.78923490E+01 9.33553810E-01 2.64245790E-02 6.10597270E-06    3
-2.19774990E-08 9.51492530E-12-1.39585200E+04 1.92016910E+01                   4
! Wang2013, USCII, Aramco2  D11/99
C4H2                    C   4H   2          G    300.00   3000.00 1000.00      1